Version 4.1
SHEET 1 880 680
WIRE 320 -160 112 -160
WIRE 112 -144 112 -160
WIRE 112 -144 48 -144
WIRE 112 -128 112 -144
WIRE 48 -64 48 -144
WIRE 112 -32 112 -48
WIRE 320 16 320 -160
WIRE 48 80 48 0
WIRE 112 80 112 48
WIRE 112 80 48 80
WIRE 112 96 112 80
WIRE 144 96 112 96
WIRE -160 176 -176 176
WIRE -32 176 -80 176
WIRE 64 176 48 176
WIRE -176 208 -176 176
WIRE 112 208 112 192
WIRE 320 208 320 96
FLAG 112 208 0
FLAG 320 208 0
FLAG -176 208 0
FLAG 144 96 Vd
SYMBOL nmos 64 96 R0
SYMATTR InstName M1
SYMATTR Value 2N7002
SYMBOL res 64 160 R90
WINDOW 0 0 56 VBottom 2
WINDOW 3 32 56 VTop 2
SYMATTR InstName R1
SYMATTR Value 100
SYMBOL ind 96 -48 R0
SYMATTR InstName L1
SYMATTR Value 100m
SYMBOL res 96 -144 R0
SYMATTR InstName R2
SYMATTR Value 62.5
SYMBOL diode 64 0 R180
WINDOW 0 24 64 Left 2
WINDOW 3 24 0 Left 2
SYMATTR InstName D1
SYMATTR Value 1N4148
SYMBOL voltage 320 0 R0
WINDOW 123 0 0 Left 0
WINDOW 39 0 0 Left 0
SYMATTR InstName V1
SYMATTR Value 5
SYMBOL voltage -64 176 R90
WINDOW 0 -32 56 VBottom 2
WINDOW 3 -111 38 VTop 2
WINDOW 123 0 0 Left 0
WINDOW 39 0 0 Left 0
SYMATTR InstName V2
SYMATTR Value PULSE(0 3.3 0 0 0 1 2)
TEXT -232 56 Left 2 !.tran 0 2 0 0.01
