Version 4.1
SHEET 1 1192 680
WIRE 432 -64 288 -64
WIRE 272 -32 256 -32
WIRE 288 -32 288 -64
WIRE 288 -32 272 -32
WIRE 320 -32 288 -32
WIRE 320 -16 320 -32
WIRE 256 48 256 -32
WIRE 320 80 320 64
WIRE 432 96 432 -64
WIRE 256 192 256 112
WIRE 288 192 256 192
WIRE 320 192 320 160
WIRE 320 192 288 192
WIRE 288 240 288 192
WIRE 96 320 0 320
WIRE 240 320 176 320
WIRE 0 352 0 320
WIRE 0 464 0 432
WIRE 288 464 288 336
WIRE 432 464 432 176
FLAG 288 464 0
FLAG 0 464 0
FLAG 432 464 0
FLAG 288 192 Vd
FLAG 272 -32 Vr
SYMBOL voltage 432 80 R0
WINDOW 123 0 0 Left 0
WINDOW 39 0 0 Left 0
SYMATTR InstName V1
SYMATTR Value 12V
SYMBOL ind 304 64 R0
SYMATTR InstName L1
SYMATTR Value 1m
SYMBOL diode 272 112 R180
WINDOW 0 24 64 Left 2
WINDOW 3 24 0 Left 2
SYMATTR InstName D1
SYMATTR Value 1N4007
SYMBOL nmos 240 240 R0
SYMATTR InstName M1
SYMATTR Value 2N7002
SYMBOL voltage 0 336 R0
WINDOW 123 0 0 Left 0
WINDOW 39 0 0 Left 0
SYMATTR InstName V2
SYMATTR Value PULSE(0 5 0 0 0 1 2 4)
SYMBOL res 192 304 R90
WINDOW 0 0 56 VBottom 2
WINDOW 3 32 56 VTop 2
SYMATTR InstName R2
SYMATTR Value 10
SYMBOL res 304 -32 R0
SYMATTR InstName R3
SYMATTR Value 1k
TEXT -32 488 Left 2 !.tran 0 20 0 0.1
