Version 4.1
SHEET 1 880 680
WIRE 320 -128 112 -128
WIRE 688 -128 320 -128
WIRE 112 -16 112 -128
WIRE 320 48 320 -128
WIRE 112 96 112 64
WIRE 144 96 112 96
WIRE 240 96 224 96
WIRE 256 96 240 96
WIRE 688 96 688 -128
WIRE 240 112 240 96
WIRE -32 176 -128 176
WIRE 64 176 48 176
WIRE -128 192 -128 176
WIRE 240 192 240 176
WIRE 320 192 320 144
WIRE 416 192 320 192
WIRE 320 208 320 192
WIRE 688 224 688 176
WIRE 112 240 112 192
WIRE -128 288 -128 272
WIRE 320 304 320 288
FLAG 112 240 0
FLAG 240 192 0
FLAG 416 192 Vout
FLAG -128 288 0
FLAG 688 224 0
FLAG 320 304 0
SYMBOL res 64 160 R90
WINDOW 0 -39 61 VBottom 2
WINDOW 3 -37 64 VTop 2
SYMATTR InstName R1
SYMATTR Value 10K
SYMBOL res 96 -32 R0
WINDOW 0 -40 45 Left 2
WINDOW 3 -41 70 Left 2
SYMATTR InstName R2
SYMATTR Value 10K
SYMBOL res 240 80 R90
WINDOW 0 -27 59 VBottom 2
WINDOW 3 -28 57 VTop 2
SYMATTR InstName R3
SYMATTR Value 10K
SYMBOL cap 224 112 R0
WINDOW 0 26 102 Left 2
WINDOW 3 9 127 Left 2
SYMATTR InstName C1
SYMATTR Value 100µ
SYMBOL npn 256 48 R0
SYMATTR InstName Q2
SYMATTR Value BC547C
SYMBOL voltage -128 176 R0
WINDOW 3 -80 163 Left 2
WINDOW 123 0 0 Left 0
WINDOW 39 0 0 Left 0
SYMATTR Value PULSE(0 5 0 0 0 {duty} 0.02 10000000000)
SYMATTR InstName V1
SYMBOL voltage 688 80 R0
WINDOW 123 0 0 Left 0
WINDOW 39 0 0 Left 0
SYMATTR InstName V2
SYMATTR Value 10
SYMBOL nmos 64 96 R0
SYMATTR InstName M1
SYMATTR Value 2N7002
SYMBOL res 304 192 R0
SYMATTR InstName R4
SYMATTR Value 1k
TEXT -208 360 Left 2 !.tran 0 60 0 0.5
TEXT -208 312 Left 2 !.step param duty 0.0000 0.02 0.0005
