Version 4.1
SHEET 1 880 856
WIRE 592 -80 336 -80
WIRE 336 -32 336 -80
WIRE 384 -32 336 -32
WIRE 384 -16 384 -32
WIRE -32 80 -80 80
WIRE 96 80 48 80
WIRE 368 80 288 80
WIRE 384 80 384 64
WIRE 384 80 368 80
WIRE 352 144 288 144
WIRE 336 160 336 -32
WIRE 384 160 336 160
WIRE 96 176 64 176
WIRE 384 176 384 160
WIRE -80 272 -80 80
WIRE -32 272 -80 272
WIRE 96 272 48 272
WIRE 368 272 288 272
WIRE 384 272 384 256
WIRE 384 272 368 272
WIRE 352 336 352 144
WIRE 352 336 288 336
WIRE 336 352 336 160
WIRE 384 352 336 352
WIRE 64 368 64 176
WIRE 96 368 64 368
WIRE 384 368 384 352
WIRE 592 368 592 -80
WIRE -80 464 -80 272
WIRE -32 464 -80 464
WIRE 96 464 48 464
WIRE 368 464 288 464
WIRE 384 464 384 448
WIRE 384 464 368 464
WIRE 352 528 352 336
WIRE 352 528 288 528
WIRE 64 560 64 368
WIRE 96 560 64 560
WIRE 336 560 336 352
WIRE 384 560 336 560
WIRE -80 656 -80 464
WIRE -32 656 -80 656
WIRE 96 656 48 656
WIRE 368 656 288 656
WIRE 384 656 384 640
WIRE 384 656 368 656
WIRE -80 688 -80 656
WIRE 352 720 352 528
WIRE 352 720 288 720
WIRE 64 752 64 560
WIRE 96 752 64 752
WIRE -80 816 -80 768
WIRE 64 816 64 752
WIRE 352 816 352 720
WIRE 592 816 592 448
FLAG 352 816 0
FLAG 592 816 0
FLAG 64 816 0
FLAG 368 80 V1
FLAG 368 272 V2
FLAG 368 464 V3
FLAG 368 656 V4
FLAG -80 816 0
SYMBOL Optos\\4N25 192 144 R0
SYMATTR InstName U1
SYMBOL Optos\\4N25 192 336 R0
SYMATTR InstName U2
SYMBOL Optos\\4N25 192 528 R0
SYMATTR InstName U3
SYMBOL Optos\\4N25 192 720 R0
SYMATTR InstName U4
SYMBOL res 368 -32 R0
SYMATTR InstName R1
SYMATTR Value 1000
SYMBOL res 368 160 R0
SYMATTR InstName R2
SYMATTR Value 1000
SYMBOL res 368 352 R0
SYMATTR InstName R3
SYMATTR Value 1000
SYMBOL res 368 544 R0
SYMATTR InstName R4
SYMATTR Value 1000
SYMBOL voltage 592 352 R0
WINDOW 123 0 0 Left 0
WINDOW 39 0 0 Left 0
SYMATTR InstName V1
SYMATTR Value 5V
SYMBOL res 64 64 R90
WINDOW 0 0 56 VBottom 2
WINDOW 3 32 56 VTop 2
SYMATTR InstName R5
SYMATTR Value 390
SYMBOL res 64 256 R90
WINDOW 0 0 56 VBottom 2
WINDOW 3 32 56 VTop 2
SYMATTR InstName R6
SYMATTR Value 390
SYMBOL res 64 448 R90
WINDOW 0 0 56 VBottom 2
WINDOW 3 32 56 VTop 2
SYMATTR InstName R7
SYMATTR Value 390
SYMBOL res 64 640 R90
WINDOW 0 0 56 VBottom 2
WINDOW 3 32 56 VTop 2
SYMATTR InstName R8
SYMATTR Value 390
SYMBOL voltage -80 672 R0
WINDOW 123 0 0 Left 0
WINDOW 39 0 0 Left 0
SYMATTR InstName V2
SYMATTR Value PULSE(0 5 0 0 0 1 2 10)
TEXT 112 816 Left 2 !.tran 0 10 0 0.01
